tests/data/power_flow/step-up-transformer/fast-any-tap/sym_output.json
{
  "version": "1.0",
  "type": "sym_output",
  "is_batch": false,
  "attributes": {},
  "data": {
    "node": [
      {"id": 2, "energized": 1, "u_pu": 0.9999994897958192, "u": 9999.994897958191, "u_angle": -4.976276188195561e-08, "p": 1002.675464309403, "q": 5025.610407395056},
      {"id": 4, "energized": 1, "u_pu": 1.0050509369712670, "u": 402.02037478850, "u_angle": -2.618511710996588, "p": -1000, "q": -5000.000000000176}
    ],
    "transformer": [
      {"id": 3, "energized": 1, "loading": 0.05124657847470949, "p_from": 1002.675464309403, "q_from": 5025.610407395056, "i_from": 0.2958724096822089, "s_from": 5124.657847470949, "p_to": -1000, "q_to": -5000.000000000176, "i_to": 7.322813651732996, "s_to": 5099.019513592958}
    ],
    "sym_load": [
      {"id": 5, "energized": 1, "p": 1000, "q": 5000, "i": 7.322813651732635, "s": 5099.019513592785, "pf": 0.196116135138184}
    ],
    "source": [
      {"id": 1, "energized": 1, "p": 1002.675464309403, "q": 5025.610407395056, "i": 0.295872409682209, "s": 5124.657847470949, "pf": 0.1956570553884353}
    ],
    "transformer_tap_regulator": [
      {"id": 6, "energized": 1, "tap_pos": -1}
    ]
  }
}